
  EPA STORM WATER MANAGEMENT MODEL - VERSION 5.1 (Build 5.1.005)
  --------------------------------------------------------------

  
  ERROR 209: undefined object 3 at line 47 of [SUBCATCHMENT] section:
  1                1                3                8.264    100      600      2.0833   0                        


  Analysis begun on:  Mon May 12 19:34:55 2014
  Analysis ended on:  Mon May 12 19:34:55 2014
  Total elapsed time: < 1 sec